minlp-notes/research-20261001/scip-set-selection/logs/root/powerflow0057r.scip.s0.log
SCIP version 10.0.3 [precision: 8 byte] [memory: block] [mode: optimized] [LP solver: SoPlex 8.0.3] [GitHash: d409edf9f6]
Copyright (c) 2002-2026 Zuse Institute Berlin (ZIB)

External libraries: 
  Readline 8.3         GNU library for command line editing (gnu.org/s/readline)
  SoPlex 8.0.3         Linear programming solver developed at Zuse Institute Berlin (soplex.zib.de) [GitHash: 13e2ab24]
  CppAD 20180000.0     Algorithmic Differentiation of C++ algorithms developed by B. Bell (github.com/coin-or/CppAD)
  ZLIB 1.3.2           General purpose compression library by J. Gailly and M. Adler (zlib.net)
  LAPACK 3.12.0        General Linear Algebra PACKage (http://www.netlib.org/lapack/)
  MPFR 4.2.2           GNU Multiple Precision Floating-Point Reliable Library (mpfr.org)
  Boost 1.85.0         Boost C++ Libraries (boost.org)
  TinyCThread 1.2      small portable implementation of the C11 threads API (tinycthread.github.io)
  GMP 6.3.0            GNU Multiple Precision Arithmetic Library developed by T. Granlund (gmplib.org)
  AMPL/MP 4.0.4        AMPL .nl file reader library (github.com/ampl/mp)
  Nauty 2.8.8          Computing Graph Automorphism Groups by Brendan D. McKay (users.cecs.anu.edu.au/~bdm/nauty)
  sassy 2.1            Symmetry preprocessor by Markus Anders (github.com/markusa4/sassy)

user parameter file <scip.set> not found - using default parameters

table/nlhdlr_quadratic/active = TRUE
limits/memory = 6000
limits/time = 120
timing/clocktype = 1
nlhdlr/quadratic/useintersectioncuts = TRUE
limits/nodes = 1

read problem </workspace/local-home/.cache/minlplib/minlplib/osil/powerflow0057r.osil>
============

original problem has 441 variables (0 bin, 0 int, 441 cont) and 726 constraints

presolving:
(round 1, fast)       72 del vars, 223 del conss, 0 add conss, 1283 chg bounds, 0 chg sides, 0 chg coeffs, 0 upgd conss, 0 impls, 0 clqs, 0 implints
(round 2, fast)       72 del vars, 245 del conss, 0 add conss, 1368 chg bounds, 0 chg sides, 0 chg coeffs, 0 upgd conss, 0 impls, 0 clqs, 0 implints
   (0.1s) symmetry computation started: requiring (bin +, int +, cont +), (fixed: bin -, int -, cont -)
   (0.1s) no symmetry present (symcode time: 0.00)
presolving (3 rounds: 3 fast, 1 medium, 1 exhaustive):
 72 deleted vars, 245 deleted constraints, 0 added constraints, 1368 tightened bounds, 0 added holes, 0 changed sides, 0 changed coefficients
 0 implications, 0 cliques, 0 implied integral variables (0 bin, 0 int, 0 cont)
presolved problem has 369 variables (0 bin, 0 int, 369 cont) and 424 constraints
     50 constraints of type <linear>
    374 constraints of type <nonlinear>
Presolving Time: 0.05

 time | node  | left  |LP iter|LP it/n|mem/heur|mdpt |vars |cons |rows |cuts |sepa|confs|strbr|  dualbound   | primalbound  |  gap   | compl. 
  0.1s|     1 |     0 |  1481 |     - |    15M |   0 |1174 | 424 |1302 |   0 |  0 |   0 |   0 |-1.000000e-09 |      --      |    Inf | unknown
  0.4s|     1 |     0 |  1904 |     - |    20M |   0 |1174 | 424 |1377 |  75 |  1 |   0 |   0 |-1.000000e-09 |      --      |    Inf | unknown
  0.7s|     1 |     0 |  2524 |     - |    26M |   0 |1174 | 424 |1445 | 143 |  2 |   0 |   0 |-1.000000e-09 |      --      |    Inf | unknown
  1.2s|     1 |     0 |  3128 |     - |    29M |   0 |1174 | 424 |1515 | 213 |  3 |   0 |   0 |-1.000000e-09 |      --      |    Inf | unknown
  1.8s|     1 |     0 |  3634 |     - |    36M |   0 |1174 | 424 |1587 | 285 |  4 |   0 |   0 |-1.000000e-09 |      --      |    Inf | unknown
  2.4s|     1 |     0 |  4146 |     - |    43M |   0 |1174 | 424 |1655 | 353 |  5 |   0 |   0 |-1.000000e-09 |      --      |    Inf | unknown
  3.0s|     1 |     0 |  4814 |     - |    48M |   0 |1174 | 424 |1725 | 423 |  6 |   0 |   0 |-1.000000e-09 |      --      |    Inf | unknown
  3.7s|     1 |     0 |  5526 |     - |    54M |   0 |1174 | 424 |1798 | 496 |  7 |   0 |   0 |-1.000000e-09 |      --      |    Inf | unknown
  4.3s|     1 |     0 |  6362 |     - |    60M |   0 |1174 | 424 |1863 | 561 |  8 |   0 |   0 |-1.000000e-09 |      --      |    Inf | unknown
  5.0s|     1 |     0 |  6936 |     - |    66M |   0 |1174 | 424 |1928 | 626 |  9 |   0 |   0 |-1.000000e-09 |      --      |    Inf | unknown
  5.7s|     1 |     0 |  7413 |     - |    73M |   0 |1174 | 424 |1192 | 699 | 10 |   0 |   0 |-1.000000e-09 |      --      |    Inf | unknown
  6.4s|     1 |     0 |  7741 |     - |    78M |   0 |1174 | 424 |1258 | 765 | 11 |   0 |   0 |-1.000000e-09 |      --      |    Inf | unknown
 23.3s|     1 |     0 | 91375 |     - |    78M |   0 |1174 | 424 |1258 | 765 | 11 |   0 |   0 |-1.000000e-09 |      --      |    Inf | unknown
 23.9s|     1 |     0 | 92180 |     - |    83M |   0 |1174 | 424 |1329 | 836 | 12 |   0 |   0 |-1.000000e-09 |      --      |    Inf | unknown
 24.6s|     1 |     0 | 92937 |     - |    87M |   0 |1174 | 424 |1400 | 907 | 13 |   0 |   0 |-1.000000e-09 |      --      |    Inf | unknown
 time | node  | left  |LP iter|LP it/n|mem/heur|mdpt |vars |cons |rows |cuts |sepa|confs|strbr|  dualbound   | primalbound  |  gap   | compl. 
 25.3s|     1 |     0 | 93514 |     - |    95M |   0 |1174 | 424 |1167 | 984 | 14 |   0 |   0 |-1.000000e-09 |      --      |    Inf | unknown
 26.0s|     1 |     0 | 93970 |     - |   101M |   0 |1174 | 424 |1235 |1052 | 15 |   0 |   0 |-1.000000e-09 |      --      |    Inf | unknown
 26.6s|     1 |     0 | 94448 |     - |   105M |   0 |1174 | 424 |1308 |1125 | 16 |   0 |   0 |-1.000000e-09 |      --      |    Inf | unknown
 27.3s|     1 |     0 | 94866 |     - |   113M |   0 |1174 | 424 |1378 |1195 | 17 |   0 |   0 |-1.000000e-09 |      --      |    Inf | unknown
 27.9s|     1 |     0 | 95352 |     - |   117M |   0 |1174 | 424 |1440 |1257 | 18 |   0 |   0 |-1.000000e-09 |      --      |    Inf | unknown
 28.6s|     1 |     0 | 95626 |     - |   123M |   0 |1174 | 424 |1509 |1326 | 19 |   0 |   0 |-1.000000e-09 |      --      |    Inf | unknown
 29.4s|     1 |     0 | 95996 |     - |   129M |   0 |1174 | 424 |1187 |1394 | 20 |   0 |   0 |-1.000000e-09 |      --      |    Inf | unknown
 29.6s|     1 |     0 | 96366 |     - |   131M |   0 |1174 | 424 |1256 |1463 | 21 |   0 |   0 |-1.000000e-09 |      --      |    Inf | unknown
 29.8s|     1 |     0 | 96804 |     - |   133M |   0 |1174 | 424 |1320 |1527 | 22 |   0 |   0 |-1.000000e-09 |      --      |    Inf | unknown
 57.2s|     1 |     0 |233876 |     - |   135M |   0 |1174 | 424 |1401 |1608 | 22 |   0 |   0 |-1.000000e-09 |      --      |    Inf | unknown
 57.6s|     1 |     0 |235432 |     - |   135M |   0 |1174 | 424 |1467 |1674 | 23 |   0 |   0 |-1.000000e-09 |      --      |    Inf | unknown
 57.8s|     1 |     0 |236336 |     - |   137M |   0 |1174 | 424 |1198 |1698 | 24 |   0 |   0 |-1.000000e-09 |      --      |    Inf | unknown
 58.0s|     1 |     0 |236895 |     - |   137M |   0 |1174 | 424 |1264 |1764 | 25 |   0 |   0 |-1.000000e-09 |      --      |    Inf | unknown
 58.0s|     1 |     0 |237130 |     - |   138M |   0 |1174 | 424 |1302 |1802 | 26 |   0 |   0 |-1.000000e-09 |      --      |    Inf | unknown
 58.1s|     1 |     0 |237677 |     - |   138M |   0 |1174 | 424 |1364 |1864 | 27 |   0 |   0 |-1.000000e-09 |      --      |    Inf | unknown
 time | node  | left  |LP iter|LP it/n|mem/heur|mdpt |vars |cons |rows |cuts |sepa|confs|strbr|  dualbound   | primalbound  |  gap   | compl. 
 58.2s|     1 |     0 |237910 |     - |   139M |   0 |1174 | 424 |1387 |1887 | 28 |   0 |   0 |-1.000000e-09 |      --      |    Inf | unknown
 58.5s|     1 |     0 |239071 |     - |   139M |   0 |1174 | 424 |1452 |1952 | 29 |   0 |   0 |-1.000000e-09 |      --      |    Inf | unknown
 58.5s|     1 |     0 |239218 |     - |   139M |   0 |1174 | 424 |1133 |1967 | 30 |   0 |   0 |-1.000000e-09 |      --      |    Inf | unknown
 58.6s|     1 |     0 |239766 |     - |   139M |   0 |1174 | 424 |1196 |2030 | 31 |   0 |   0 |-1.000000e-09 |      --      |    Inf | unknown
 58.7s|     1 |     0 |240005 |     - |   139M |   0 |1174 | 424 |1237 |2071 | 32 |   0 |   0 |-1.000000e-09 |      --      |    Inf | unknown
 58.8s|     1 |     0 |240462 |     - |   139M |   0 |1174 | 424 |1308 |2142 | 33 |   0 |   0 |-1.000000e-09 |      --      |    Inf | unknown
 58.8s|     1 |     0 |240649 |     - |   139M |   0 |1174 | 424 |1367 |2201 | 34 |   0 |   0 |-1.000000e-09 |      --      |    Inf | unknown
 59.2s|     1 |     0 |242417 |     - |   139M |   0 |1174 | 424 |1435 |2269 | 35 |   0 |   0 |-1.000000e-09 |      --      |    Inf | unknown
 59.2s|     1 |     0 |242462 |     - |   139M |   0 |1174 | 424 |1103 |2277 | 36 |   0 |   0 |-1.000000e-09 |      --      |    Inf | unknown
 59.3s|     1 |     0 |243014 |     - |   139M |   0 |1174 | 424 |1165 |2339 | 37 |   0 |   0 |-1.000000e-09 |      --      |    Inf | unknown
 59.3s|     1 |     0 |243254 |     - |   139M |   0 |1174 | 424 |1222 |2396 | 38 |   0 |   0 |-1.000000e-09 |      --      |    Inf | unknown
 59.4s|     1 |     0 |243690 |     - |   139M |   0 |1174 | 424 |1289 |2463 | 39 |   0 |   0 |-1.000000e-09 |      --      |    Inf | unknown
 59.4s|     1 |     0 |244001 |     - |   139M |   0 |1174 | 424 |1353 |2527 | 40 |   0 |   0 |-1.000000e-09 |      --      |    Inf | unknown
 59.6s|     1 |     0 |245276 |     - |   139M |   0 |1174 | 424 |1417 |2591 | 41 |   0 |   0 |-1.000000e-09 |      --      |    Inf | unknown
 59.6s|     1 |     0 |245892 |     - |   139M |   0 |1174 | 424 |1171 |2627 | 42 |   0 |   0 |-1.000000e-09 |      --      |    Inf | unknown
 time | node  | left  |LP iter|LP it/n|mem/heur|mdpt |vars |cons |rows |cuts |sepa|confs|strbr|  dualbound   | primalbound  |  gap   | compl. 
 59.7s|     1 |     0 |246348 |     - |   139M |   0 |1174 | 424 |1234 |2690 | 43 |   0 |   0 |-1.000000e-09 |      --      |    Inf | unknown
 59.8s|     1 |     0 |246948 |     - |   139M |   0 |1174 | 424 |1314 |2770 | 44 |   0 |   0 |-1.000000e-09 |      --      |    Inf | unknown
 59.8s|     1 |     0 |247516 |     - |   139M |   0 |1174 | 424 |1378 |2834 | 45 |   0 |   0 |-1.000000e-09 |      --      |    Inf | unknown
 59.9s|     1 |     0 |248070 |     - |   139M |   0 |1174 | 424 |1419 |2875 | 46 |   0 |   0 |-1.000000e-09 |      --      |    Inf | unknown
 60.0s|     1 |     0 |248951 |     - |   139M |   0 |1174 | 424 |1488 |2944 | 47 |   0 |   0 |-1.000000e-09 |      --      |    Inf | unknown
 60.1s|     1 |     0 |249234 |     - |   139M |   0 |1174 | 424 |1178 |2957 | 48 |   0 |   0 |-1.000000e-09 |      --      |    Inf | unknown
 60.1s|     1 |     0 |249748 |     - |   139M |   0 |1174 | 424 |1240 |3019 | 49 |   0 |   0 |-1.000000e-09 |      --      |    Inf | unknown
 60.2s|     1 |     0 |249949 |     - |   139M |   0 |1174 | 424 |1274 |3053 | 50 |   0 |   0 |-1.000000e-09 |      --      |    Inf | unknown
 60.2s|     1 |     0 |250497 |     - |   139M |   0 |1174 | 424 |1341 |3120 | 51 |   0 |   0 |-1.000000e-09 |      --      |    Inf | unknown
 60.2s|     1 |     0 |250696 |     - |   139M |   0 |1174 | 424 |1388 |3167 | 52 |   0 |   0 |-1.000000e-09 |      --      |    Inf | unknown
 60.4s|     1 |     0 |252070 |     - |   139M |   0 |1174 | 424 |1456 |3235 | 53 |   0 |   0 |-1.000000e-09 |      --      |    Inf | unknown
 60.5s|     1 |     0 |252482 |     - |   139M |   0 |1174 | 424 |1116 |3256 | 54 |   0 |   0 |-1.000000e-09 |      --      |    Inf | unknown
 60.6s|     1 |     0 |253070 |     - |   139M |   0 |1174 | 424 |1182 |3322 | 55 |   0 |   0 |-1.000000e-09 |      --      |    Inf | unknown
 60.6s|     1 |     0 |253610 |     - |   139M |   0 |1174 | 424 |1280 |3420 | 56 |   0 |   0 |-1.000000e-09 |      --      |    Inf | unknown
 60.7s|     1 |     0 |254709 |     - |   139M |   0 |1174 | 424 |1349 |3489 | 57 |   0 |   0 | 9.767400e+02 |      --      |    Inf | unknown
 time | node  | left  |LP iter|LP it/n|mem/heur|mdpt |vars |cons |rows |cuts |sepa|confs|strbr|  dualbound   | primalbound  |  gap   | compl. 
 60.7s|     1 |     0 |254787 |     - |   139M |   0 |1174 | 424 |1399 |3539 | 58 |   0 |   0 | 1.060362e+03 |      --      |    Inf | unknown
 60.8s|     1 |     0 |255294 |     - |   139M |   0 |1174 | 424 |1464 |3604 | 59 |   0 |   0 | 1.814503e+03 |      --      |    Inf | unknown
 60.8s|     1 |     0 |255336 |     - |   139M |   0 |1174 | 424 |1238 |3618 | 60 |   0 |   0 | 1.831878e+03 |      --      |    Inf | unknown
 60.8s|     1 |     0 |255773 |     - |   139M |   0 |1174 | 424 |1305 |3685 | 61 |   0 |   0 | 2.853468e+03 |      --      |    Inf | unknown
 60.8s|     1 |     0 |255806 |     - |   139M |   0 |1174 | 424 |1318 |3698 | 62 |   0 |   0 | 2.941573e+03 |      --      |    Inf | unknown
 60.9s|     1 |     0 |256506 |     - |   139M |   0 |1174 | 424 |1387 |3767 | 63 |   0 |   0 | 5.523774e+03 |      --      |    Inf | unknown
 60.9s|     1 |     0 |256607 |     - |   139M |   0 |1174 | 424 |1411 |3791 | 64 |   0 |   0 | 5.796804e+03 |      --      |    Inf | unknown
 61.0s|     1 |     0 |257191 |     - |   139M |   0 |1174 | 424 |1484 |3864 | 65 |   0 |   0 | 7.873045e+03 |      --      |    Inf | unknown
 61.0s|     1 |     0 |257255 |     - |   139M |   0 |1174 | 424 |1268 |3879 | 66 |   0 |   0 | 7.938303e+03 |      --      |    Inf | unknown
 61.0s|     1 |     0 |257606 |     - |   139M |   0 |1174 | 424 |1337 |3948 | 67 |   0 |   0 | 9.016131e+03 |      --      |    Inf | unknown
 61.0s|     1 |     0 |257650 |     - |   139M |   0 |1174 | 424 |1351 |3962 | 68 |   0 |   0 | 9.058250e+03 |      --      |    Inf | unknown
 61.1s|     1 |     0 |258480 |     - |   139M |   0 |1174 | 424 |1418 |4029 | 69 |   0 |   0 | 1.070087e+04 |      --      |    Inf | unknown
 61.1s|     1 |     0 |258534 |     - |   139M |   0 |1174 | 424 |1437 |4048 | 70 |   0 |   0 | 1.072825e+04 |      --      |    Inf | unknown
 61.2s|     1 |     0 |259265 |     - |   139M |   0 |1174 | 424 |1502 |4113 | 71 |   0 |   0 | 1.227289e+04 |      --      |    Inf | unknown
 61.2s|     1 |     0 |259338 |     - |   139M |   0 |1174 | 424 |1333 |4135 | 72 |   0 |   0 | 1.232051e+04 |      --      |    Inf | unknown
 time | node  | left  |LP iter|LP it/n|mem/heur|mdpt |vars |cons |rows |cuts |sepa|confs|strbr|  dualbound   | primalbound  |  gap   | compl. 
 61.2s|     1 |     0 |259669 |     - |   139M |   0 |1174 | 424 |1400 |4202 | 73 |   0 |   0 | 1.435283e+04 |      --      |    Inf | unknown
 61.3s|     1 |     0 |259742 |     - |   139M |   0 |1174 | 424 |1422 |4224 | 74 |   0 |   0 | 1.439900e+04 |      --      |    Inf | unknown
 61.4s|     1 |     0 |260607 |     - |   139M |   0 |1174 | 424 |1492 |4294 | 75 |   0 |   0 | 1.588608e+04 |      --      |    Inf | unknown
 61.4s|     1 |     0 |260656 |     - |   139M |   0 |1174 | 424 |1501 |4303 | 76 |   0 |   0 | 1.590451e+04 |      --      |    Inf | unknown
 61.5s|     1 |     0 |261642 |     - |   139M |   0 |1174 | 424 |1565 |4367 | 77 |   0 |   0 | 1.712185e+04 |      --      |    Inf | unknown
 61.5s|     1 |     0 |261693 |     - |   139M |   0 |1174 | 424 |1317 |4375 | 78 |   0 |   0 | 1.712823e+04 |      --      |    Inf | unknown
 61.5s|     1 |     0 |262025 |     - |   139M |   0 |1174 | 424 |1382 |4440 | 79 |   0 |   0 | 1.838544e+04 |      --      |    Inf | unknown
 61.5s|     1 |     0 |262076 |     - |   139M |   0 |1174 | 424 |1399 |4457 | 80 |   0 |   0 | 1.841220e+04 |      --      |    Inf | unknown
 61.6s|     1 |     0 |262553 |     - |   139M |   0 |1174 | 424 |1468 |4526 | 81 |   0 |   0 | 1.884523e+04 |      --      |    Inf | unknown
 61.6s|     1 |     0 |262569 |     - |   139M |   0 |1174 | 424 |1477 |4535 | 82 |   0 |   0 | 1.885190e+04 |      --      |    Inf | unknown
 61.7s|     1 |     0 |263771 |     - |   139M |   0 |1174 | 424 |1546 |4604 | 83 |   0 |   0 | 2.063223e+04 |      --      |    Inf | unknown
 61.7s|     1 |     0 |263826 |     - |   139M |   0 |1174 | 424 |1300 |4621 | 84 |   0 |   0 | 2.068910e+04 |      --      |    Inf | unknown
 61.7s|     1 |     0 |264209 |     - |   139M |   0 |1174 | 424 |1367 |4688 | 85 |   0 |   0 | 2.187225e+04 |      --      |    Inf | unknown
 61.8s|     1 |     0 |264237 |     - |   139M |   0 |1174 | 424 |1379 |4700 | 86 |   0 |   0 | 2.189896e+04 |      --      |    Inf | unknown
 61.8s|     1 |     0 |265212 |     - |   139M |   0 |1174 | 424 |1442 |4763 | 87 |   0 |   0 | 2.267546e+04 |      --      |    Inf | unknown
 time | node  | left  |LP iter|LP it/n|mem/heur|mdpt |vars |cons |rows |cuts |sepa|confs|strbr|  dualbound   | primalbound  |  gap   | compl. 
 61.8s|     1 |     0 |265259 |     - |   139M |   0 |1174 | 424 |1450 |4771 | 88 |   0 |   0 | 2.270142e+04 |      --      |    Inf | unknown
 61.9s|     1 |     0 |265991 |     - |   139M |   0 |1174 | 424 |1520 |4841 | 89 |   0 |   0 | 2.306408e+04 |      --      |    Inf | unknown
 61.9s|     1 |     0 |265998 |     - |   139M |   0 |1174 | 424 |1292 |4849 | 90 |   0 |   0 | 2.306521e+04 |      --      |    Inf | unknown
 62.0s|     1 |     0 |266398 |     - |   139M |   0 |1174 | 424 |1363 |4920 | 91 |   0 |   0 | 2.418691e+04 |      --      |    Inf | unknown
 62.0s|     1 |     0 |266411 |     - |   139M |   0 |1174 | 424 |1372 |4929 | 92 |   0 |   0 | 2.420074e+04 |      --      |    Inf | unknown
 62.0s|     1 |     0 |267041 |     - |   139M |   0 |1174 | 424 |1441 |4998 | 93 |   0 |   0 | 2.480463e+04 |      --      |    Inf | unknown
 62.0s|     1 |     0 |267047 |     - |   139M |   0 |1174 | 424 |1448 |5005 | 94 |   0 |   0 | 2.480484e+04 |      --      |    Inf | unknown
 62.1s|     1 |     0 |267899 |     - |   139M |   0 |1174 | 424 |1515 |5072 | 95 |   0 |   0 | 2.562578e+04 |      --      |    Inf | unknown
 62.1s|     1 |     0 |267918 |     - |   139M |   0 |1174 | 424 |1290 |5078 | 96 |   0 |   0 | 2.562872e+04 |      --      |    Inf | unknown
 62.2s|     1 |     0 |268727 |     - |   139M |   0 |1174 | 424 |1359 |5147 | 97 |   0 |   0 | 2.632238e+04 |      --      |    Inf | unknown
 62.2s|     1 |     0 |268734 |     - |   139M |   0 |1174 | 424 |1364 |5152 | 98 |   0 |   0 | 2.632379e+04 |      --      |    Inf | unknown
 62.2s|     1 |     0 |269398 |     - |   139M |   0 |1174 | 424 |1428 |5216 | 99 |   0 |   0 | 2.688571e+04 |      --      |    Inf | unknown
 62.2s|     1 |     0 |269504 |     - |   139M |   0 |1174 | 424 |1434 |5222 |100 |   0 |   0 | 2.689834e+04 |      --      |    Inf | unknown
 62.3s|     1 |     0 |270428 |     - |   139M |   0 |1174 | 424 |1497 |5285 |101 |   0 |   0 | 2.776075e+04 |      --      |    Inf | unknown
 62.3s|     1 |     0 |270473 |     - |   139M |   0 |1174 | 424 |1289 |5296 |102 |   0 |   0 | 2.777162e+04 |      --      |    Inf | unknown
 time | node  | left  |LP iter|LP it/n|mem/heur|mdpt |vars |cons |rows |cuts |sepa|confs|strbr|  dualbound   | primalbound  |  gap   | compl. 
 62.3s|     1 |     0 |270771 |     - |   139M |   0 |1174 | 424 |1361 |5368 |103 |   0 |   0 | 2.793104e+04 |      --      |    Inf | unknown
 62.3s|     1 |     0 |270776 |     - |   139M |   0 |1174 | 424 |1367 |5374 |104 |   0 |   0 | 2.793114e+04 |      --      |    Inf | unknown
 62.5s|     1 |     0 |272970 |     - |   139M |   0 |1174 | 424 |1436 |5443 |105 |   0 |   0 | 2.853930e+04 |      --      |    Inf | unknown
 62.5s|     1 |     0 |272988 |     - |   139M |   0 |1174 | 424 |1449 |5456 |106 |   0 |   0 | 2.853993e+04 |      --      |    Inf | unknown
 62.6s|     1 |     0 |274595 |     - |   139M |   0 |1174 | 424 |1519 |5526 |107 |   0 |   0 | 2.894238e+04 |      --      |    Inf | unknown
 62.6s|     1 |     0 |274604 |     - |   139M |   0 |1174 | 424 |1296 |5533 |108 |   0 |   0 | 2.894270e+04 |      --      |    Inf | unknown
 62.6s|     1 |     0 |275046 |     - |   139M |   0 |1174 | 424 |1363 |5600 |109 |   0 |   0 | 2.955305e+04 |      --      |    Inf | unknown
 62.6s|     1 |     0 |275058 |     - |   139M |   0 |1174 | 424 |1370 |5607 |110 |   0 |   0 | 2.955342e+04 |      --      |    Inf | unknown
 62.7s|     1 |     0 |276520 |     - |   139M |   0 |1174 | 424 |1436 |5673 |111 |   0 |   0 | 3.071805e+04 |      --      |    Inf | unknown
 62.7s|     1 |     0 |276551 |     - |   139M |   0 |1174 | 424 |1451 |5688 |112 |   0 |   0 | 3.072171e+04 |      --      |    Inf | unknown
 62.8s|     1 |     0 |277539 |     - |   139M |   0 |1174 | 424 |1524 |5761 |113 |   0 |   0 | 3.088508e+04 |      --      |    Inf | unknown
 62.8s|     1 |     0 |277553 |     - |   139M |   0 |1174 | 424 |1321 |5773 |114 |   0 |   0 | 3.088581e+04 |      --      |    Inf | unknown
 62.9s|     1 |     0 |277947 |     - |   139M |   0 |1174 | 424 |1387 |5839 |115 |   0 |   0 | 3.113567e+04 |      --      |    Inf | unknown
 62.9s|     1 |     0 |277957 |     - |   139M |   0 |1174 | 424 |1394 |5846 |116 |   0 |   0 | 3.113588e+04 |      --      |    Inf | unknown
 63.0s|     1 |     0 |279194 |     - |   139M |   0 |1174 | 424 |1460 |5912 |117 |   0 |   0 | 3.142595e+04 |      --      |    Inf | unknown
 time | node  | left  |LP iter|LP it/n|mem/heur|mdpt |vars |cons |rows |cuts |sepa|confs|strbr|  dualbound   | primalbound  |  gap   | compl. 
 63.0s|     1 |     0 |279205 |     - |   139M |   0 |1174 | 424 |1469 |5921 |118 |   0 |   0 | 3.142608e+04 |      --      |    Inf | unknown
 63.0s|     1 |     0 |279913 |     - |   139M |   0 |1174 | 424 |1537 |5989 |119 |   0 |   0 | 3.154305e+04 |      --      |    Inf | unknown
 63.0s|     1 |     0 |279920 |     - |   139M |   0 |1174 | 424 |1317 |5996 |120 |   0 |   0 | 3.154313e+04 |      --      |    Inf | unknown
 63.1s|     1 |     0 |280285 |     - |   139M |   0 |1174 | 424 |1377 |6056 |121 |   0 |   0 | 3.177946e+04 |      --      |    Inf | unknown
 63.1s|     1 |     0 |280292 |     - |   139M |   0 |1174 | 424 |1383 |6062 |122 |   0 |   0 | 3.177951e+04 |      --      |    Inf | unknown
 63.2s|     1 |     0 |281489 |     - |   139M |   0 |1174 | 424 |1441 |6120 |123 |   0 |   0 | 3.201767e+04 |      --      |    Inf | unknown
 63.2s|     1 |     0 |281504 |     - |   139M |   0 |1174 | 424 |1449 |6128 |124 |   0 |   0 | 3.201804e+04 |      --      |    Inf | unknown
 63.3s|     1 |     0 |282668 |     - |   139M |   0 |1174 | 424 |1513 |6192 |125 |   0 |   0 | 3.224205e+04 |      --      |    Inf | unknown
 63.3s|     1 |     0 |282675 |     - |   139M |   0 |1174 | 424 |1277 |6198 |126 |   0 |   0 | 3.224209e+04 |      --      |    Inf | unknown
 63.3s|     1 |     0 |283101 |     - |   139M |   0 |1174 | 424 |1345 |6266 |127 |   0 |   0 | 3.259451e+04 |      --      |    Inf | unknown
 63.3s|     1 |     0 |283125 |     - |   139M |   0 |1174 | 424 |1353 |6274 |128 |   0 |   0 | 3.259541e+04 |      --      |    Inf | unknown
 63.4s|     1 |     0 |284532 |     - |   139M |   0 |1174 | 424 |1425 |6346 |129 |   0 |   0 | 3.293079e+04 |      --      |    Inf | unknown
 63.4s|     1 |     0 |284544 |     - |   139M |   0 |1174 | 424 |1433 |6354 |130 |   0 |   0 | 3.293089e+04 |      --      |    Inf | unknown
 63.5s|     1 |     0 |285568 |     - |   139M |   0 |1174 | 424 |1501 |6422 |131 |   0 |   0 | 3.311757e+04 |      --      |    Inf | unknown
 63.5s|     1 |     0 |285575 |     - |   139M |   0 |1174 | 424 |1287 |6428 |132 |   0 |   0 | 3.311759e+04 |      --      |    Inf | unknown
 time | node  | left  |LP iter|LP it/n|mem/heur|mdpt |vars |cons |rows |cuts |sepa|confs|strbr|  dualbound   | primalbound  |  gap   | compl. 
 63.5s|     1 |     0 |286091 |     - |   139M |   0 |1174 | 424 |1351 |6492 |133 |   0 |   0 | 3.349865e+04 |      --      |    Inf | unknown
 63.6s|     1 |     0 |286111 |     - |   139M |   0 |1174 | 424 |1363 |6504 |134 |   0 |   0 | 3.350298e+04 |      --      |    Inf | unknown
 63.7s|     1 |     0 |287881 |     - |   139M |   0 |1174 | 424 |1427 |6568 |135 |   0 |   0 | 3.411526e+04 |      --      |    Inf | unknown
 63.7s|     1 |     0 |287906 |     - |   139M |   0 |1174 | 424 |1438 |6579 |136 |   0 |   0 | 3.411549e+04 |      --      |    Inf | unknown
 63.9s|     1 |     0 |289923 |     - |   139M |   0 |1174 | 424 |1502 |6643 |137 |   0 |   0 | 3.435525e+04 |      --      |    Inf | unknown
 63.9s|     1 |     0 |289934 |     - |   139M |   0 |1174 | 424 |1291 |6650 |138 |   0 |   0 | 3.435548e+04 |      --      |    Inf | unknown
 64.0s|     1 |     0 |290434 |     - |   139M |   0 |1174 | 424 |1354 |6713 |139 |   0 |   0 | 3.500112e+04 |      --      |    Inf | unknown
 64.0s|     1 |     0 |290513 |     - |   139M |   0 |1174 | 424 |1442 |6801 |140 |   0 |   0 | 3.500826e+04 |      --      |    Inf | unknown
 64.1s|     1 |     0 |291859 |     - |   139M |   0 |1174 | 424 |1509 |6868 |141 |   0 |   0 | 3.569016e+04 |      --      |    Inf | unknown
 64.1s|     1 |     0 |291866 |     - |   139M |   0 |1174 | 424 |1516 |6875 |142 |   0 |   0 | 3.569078e+04 |      --      |    Inf | unknown
 64.2s|     1 |     0 |293133 |     - |   139M |   0 |1174 | 424 |1577 |6936 |143 |   0 |   0 | 3.581650e+04 |      --      |    Inf | unknown
 64.2s|     1 |     0 |293138 |     - |   139M |   0 |1174 | 424 |1363 |6942 |144 |   0 |   0 | 3.581666e+04 |      --      |    Inf | unknown
 64.3s|     1 |     0 |294315 |     - |   139M |   0 |1174 | 424 |1419 |6998 |145 |   0 |   0 | 3.594665e+04 |      --      |    Inf | unknown
 64.3s|     1 |     0 |294321 |     - |   139M |   0 |1174 | 424 |1424 |7003 |146 |   0 |   0 | 3.594667e+04 |      --      |    Inf | unknown
 64.5s|     1 |     0 |296503 |     - |   139M |   0 |1174 | 424 |1480 |7059 |147 |   0 |   0 | 3.643397e+04 |      --      |    Inf | unknown
 time | node  | left  |LP iter|LP it/n|mem/heur|mdpt |vars |cons |rows |cuts |sepa|confs|strbr|  dualbound   | primalbound  |  gap   | compl. 
 64.5s|     1 |     0 |296519 |     - |   139M |   0 |1174 | 424 |1486 |7065 |148 |   0 |   0 | 3.643409e+04 |      --      |    Inf | unknown
 64.5s|     1 |     0 |297355 |     - |   139M |   0 |1174 | 424 |1552 |7131 |149 |   0 |   0 | 3.657293e+04 |      --      |    Inf | unknown
 64.5s|     1 |     0 |297364 |     - |   139M |   0 |1174 | 424 |1267 |7138 |150 |   0 |   0 | 3.657304e+04 |      --      |    Inf | unknown
 64.6s|     1 |     0 |297755 |     - |   139M |   0 |1174 | 424 |1334 |7205 |151 |   0 |   0 | 3.670942e+04 |      --      |    Inf | unknown
 64.6s|     1 |     0 |297762 |     - |   139M |   0 |1174 | 424 |1341 |7212 |152 |   0 |   0 | 3.670944e+04 |      --      |    Inf | unknown
 64.7s|     1 |     0 |298123 |     - |   139M |   0 |1174 | 424 |1405 |7276 |153 |   0 |   0 | 3.684034e+04 |      --      |    Inf | unknown
 64.7s|     1 |     0 |298130 |     - |   139M |   0 |1174 | 424 |1411 |7282 |154 |   0 |   0 | 3.684037e+04 |      --      |    Inf | unknown
 64.8s|     1 |     0 |299305 |     - |   139M |   0 |1174 | 424 |1477 |7348 |155 |   0 |   0 | 3.696247e+04 |      --      |    Inf | unknown
 64.8s|     1 |     0 |299312 |     - |   139M |   0 |1174 | 424 |1235 |7354 |156 |   0 |   0 | 3.696249e+04 |      --      |    Inf | unknown
 64.8s|     1 |     0 |299776 |     - |   139M |   0 |1174 | 424 |1299 |7418 |157 |   0 |   0 | 3.711354e+04 |      --      |    Inf | unknown
 64.8s|     1 |     0 |299783 |     - |   139M |   0 |1174 | 424 |1304 |7423 |158 |   0 |   0 | 3.711358e+04 |      --      |    Inf | unknown
 64.9s|     1 |     0 |300148 |     - |   139M |   0 |1174 | 424 |1368 |7487 |159 |   0 |   0 | 3.737985e+04 |      --      |    Inf | unknown
 64.9s|     1 |     0 |300157 |     - |   139M |   0 |1174 | 424 |1373 |7492 |160 |   0 |   0 | 3.737989e+04 |      --      |    Inf | unknown
 64.9s|     1 |     0 |300952 |     - |   139M |   0 |1174 | 424 |1439 |7558 |161 |   0 |   0 | 3.744442e+04 |      --      |    Inf | unknown
 64.9s|     1 |     0 |300962 |     - |   139M |   0 |1174 | 424 |1265 |7566 |162 |   0 |   0 | 3.744446e+04 |      --      |    Inf | unknown
 time | node  | left  |LP iter|LP it/n|mem/heur|mdpt |vars |cons |rows |cuts |sepa|confs|strbr|  dualbound   | primalbound  |  gap   | compl. 
 65.0s|     1 |     0 |301474 |     - |   139M |   0 |1174 | 424 |1333 |7634 |163 |   0 |   0 | 3.758031e+04 |      --      |    Inf | unknown
 65.0s|     1 |     0 |301488 |     - |   139M |   0 |1174 | 424 |1341 |7642 |164 |   0 |   0 | 3.758037e+04 |      --      |    Inf | unknown
 65.0s|     1 |     0 |301814 |     - |   139M |   0 |1174 | 424 |1408 |7709 |165 |   0 |   0 | 3.759844e+04 |      --      |    Inf | unknown
 65.0s|     1 |     0 |301822 |     - |   139M |   0 |1174 | 424 |1414 |7715 |166 |   0 |   0 | 3.759846e+04 |      --      |    Inf | unknown
 65.1s|     1 |     0 |303029 |     - |   139M |   0 |1174 | 424 |1475 |7776 |167 |   0 |   0 | 3.769205e+04 |      --      |    Inf | unknown
 65.1s|     1 |     0 |303035 |     - |   139M |   0 |1174 | 424 |1252 |7782 |168 |   0 |   0 | 3.769207e+04 |      --      |    Inf | unknown
 65.1s|     1 |     0 |303503 |     - |   139M |   0 |1174 | 424 |1305 |7835 |169 |   0 |   0 | 3.781032e+04 |      --      |    Inf | unknown
 65.1s|     1 |     0 |303569 |     - |   139M |   0 |1174 | 424 |1313 |7843 |170 |   0 |   0 | 3.781208e+04 |      --      |    Inf | unknown
 65.2s|     1 |     0 |303986 |     - |   139M |   0 |1174 | 424 |1378 |7908 |171 |   0 |   0 | 3.800659e+04 |      --      |    Inf | unknown
 65.2s|     1 |     0 |303993 |     - |   139M |   0 |1174 | 424 |1383 |7913 |172 |   0 |   0 | 3.800662e+04 |      --      |    Inf | unknown
 65.3s|     1 |     0 |304998 |     - |   139M |   0 |1174 | 424 |1447 |7977 |173 |   0 |   0 | 3.808237e+04 |      --      |    Inf | unknown
 65.3s|     1 |     0 |305052 |     - |   139M |   0 |1174 | 424 |1309 |8014 |174 |   0 |   0 | 3.808364e+04 |      --      |    Inf | unknown
 65.3s|     1 |     0 |305350 |     - |   139M |   0 |1174 | 424 |1376 |8081 |175 |   0 |   0 | 3.810651e+04 |      --      |    Inf | unknown
 65.3s|     1 |     0 |305359 |     - |   139M |   0 |1174 | 424 |1384 |8089 |176 |   0 |   0 | 3.810652e+04 |      --      |    Inf | unknown
 65.5s|     1 |     0 |307806 |     - |   139M |   0 |1174 | 424 |1443 |8148 |177 |   0 |   0 | 3.824143e+04 |      --      |    Inf | unknown
 time | node  | left  |LP iter|LP it/n|mem/heur|mdpt |vars |cons |rows |cuts |sepa|confs|strbr|  dualbound   | primalbound  |  gap   | compl. 
 65.5s|     1 |     0 |307816 |     - |   139M |   0 |1174 | 424 |1448 |8153 |178 |   0 |   0 | 3.824143e+04 |      --      |    Inf | unknown
 65.6s|     1 |     0 |310028 |     - |   139M |   0 |1174 | 424 |1511 |8216 |179 |   0 |   0 | 3.832603e+04 |      --      |    Inf | unknown
 65.6s|     1 |     0 |310038 |     - |   139M |   0 |1174 | 424 |1322 |8221 |180 |   0 |   0 | 3.832605e+04 |      --      |    Inf | unknown
 65.7s|     1 |     0 |310678 |     - |   139M |   0 |1174 | 424 |1376 |8275 |181 |   0 |   0 | 3.862639e+04 |      --      |    Inf | unknown
 65.7s|     1 |     0 |310700 |     - |   139M |   0 |1174 | 424 |1387 |8286 |182 |   0 |   0 | 3.862650e+04 |      --      |    Inf | unknown
 65.8s|     1 |     0 |312790 |     - |   139M |   0 |1174 | 424 |1453 |8352 |183 |   0 |   0 | 3.874192e+04 |      --      |    Inf | unknown
 65.8s|     1 |     0 |312797 |     - |   139M |   0 |1174 | 424 |1459 |8358 |184 |   0 |   0 | 3.874194e+04 |      --      |    Inf | unknown
 65.9s|     1 |     0 |315037 |     - |   139M |   0 |1174 | 424 |1515 |8414 |185 |   0 |   0 | 3.877326e+04 |      --      |    Inf | unknown
 65.9s|     1 |     0 |315044 |     - |   139M |   0 |1174 | 424 |1248 |8421 |186 |   0 |   0 | 3.877328e+04 |      --      |    Inf | unknown
 65.9s|     1 |     0 |315272 |     - |   139M |   0 |1174 | 424 |1305 |8478 |187 |   0 |   0 | 3.883988e+04 |      --      |    Inf | unknown
 66.0s|     1 |     0 |315283 |     - |   139M |   0 |1174 | 424 |1311 |8484 |188 |   0 |   0 | 3.883990e+04 |      --      |    Inf | unknown
 66.0s|     1 |     0 |315586 |     - |   139M |   0 |1174 | 424 |1371 |8544 |189 |   0 |   0 | 3.891507e+04 |      --      |    Inf | unknown
 66.0s|     1 |     0 |315598 |     - |   139M |   0 |1174 | 424 |1380 |8553 |190 |   0 |   0 | 3.891513e+04 |      --      |    Inf | unknown
 66.0s|     1 |     0 |316561 |     - |   139M |   0 |1174 | 424 |1444 |8617 |191 |   0 |   0 | 3.893245e+04 |      --      |    Inf | unknown
 66.0s|     1 |     0 |316600 |     - |   139M |   0 |1174 | 424 |1258 |8623 |192 |   0 |   0 | 3.893261e+04 |      --      |    Inf | unknown
 time | node  | left  |LP iter|LP it/n|mem/heur|mdpt |vars |cons |rows |cuts |sepa|confs|strbr|  dualbound   | primalbound  |  gap   | compl. 
 66.1s|     1 |     0 |317009 |     - |   139M |   0 |1174 | 424 |1308 |8673 |193 |   0 |   0 | 3.907217e+04 |      --      |    Inf | unknown
 66.1s|     1 |     0 |317075 |     - |   139M |   0 |1174 | 424 |1325 |8690 |194 |   0 |   0 | 3.907420e+04 |      --      |    Inf | unknown
 66.2s|     1 |     0 |317686 |     - |   139M |   0 |1174 | 424 |1391 |8756 |195 |   0 |   0 | 3.914174e+04 |      --      |    Inf | unknown
 66.2s|     1 |     0 |317690 |     - |   139M |   0 |1174 | 424 |1396 |8761 |196 |   0 |   0 | 3.914176e+04 |      --      |    Inf | unknown
 66.2s|     1 |     0 |319111 |     - |   139M |   0 |1174 | 424 |1453 |8818 |197 |   0 |   0 | 3.918847e+04 |      --      |    Inf | unknown
 66.2s|     1 |     0 |319117 |     - |   139M |   0 |1174 | 424 |1261 |8824 |198 |   0 |   0 | 3.918848e+04 |      --      |    Inf | unknown
 66.3s|     1 |     0 |319285 |     - |   139M |   0 |1174 | 424 |1319 |8882 |199 |   0 |   0 | 3.919328e+04 |      --      |    Inf | unknown
 66.3s|     1 |     0 |319288 |     - |   139M |   0 |1174 | 424 |1323 |8886 |200 |   0 |   0 | 3.919329e+04 |      --      |    Inf | unknown
 66.3s|     1 |     0 |319503 |     - |   139M |   0 |1174 | 424 |1377 |8940 |201 |   0 |   0 | 3.920355e+04 |      --      |    Inf | unknown
 66.3s|     1 |     0 |319505 |     - |   139M |   0 |1174 | 424 |1378 |8941 |202 |   0 |   0 | 3.920355e+04 |      --      |    Inf | unknown
 66.4s|     1 |     0 |321426 |     - |   139M |   0 |1174 | 424 |1420 |8983 |203 |   0 |   0 | 3.941383e+04 |      --      |    Inf | unknown
 66.4s|     1 |     0 |321432 |     - |   139M |   0 |1174 | 424 |1206 |8986 |204 |   0 |   0 | 3.941384e+04 |      --      |    Inf | unknown
 66.5s|     1 |     0 |321602 |     - |   139M |   0 |1174 | 424 |1265 |9045 |205 |   0 |   0 | 3.942137e+04 |      --      |    Inf | unknown
 66.5s|     1 |     0 |321608 |     - |   139M |   0 |1174 | 424 |1271 |9051 |206 |   0 |   0 | 3.942139e+04 |      --      |    Inf | unknown
 66.5s|     1 |     0 |321849 |     - |   139M |   0 |1174 | 424 |1332 |9112 |207 |   0 |   0 | 3.943591e+04 |      --      |    Inf | unknown
 time | node  | left  |LP iter|LP it/n|mem/heur|mdpt |vars |cons |rows |cuts |sepa|confs|strbr|  dualbound   | primalbound  |  gap   | compl. 
 66.5s|     1 |     0 |321853 |     - |   139M |   0 |1174 | 424 |1338 |9118 |208 |   0 |   0 | 3.943591e+04 |      --      |    Inf | unknown
 66.5s|     1 |     0 |322108 |     - |   139M |   0 |1174 | 424 |1387 |9167 |209 |   0 |   0 | 3.945081e+04 |      --      |    Inf | unknown
 66.5s|     1 |     0 |322112 |     - |   139M |   0 |1174 | 424 |1198 |9171 |210 |   0 |   0 | 3.945082e+04 |      --      |    Inf | unknown
 66.6s|     1 |     0 |322366 |     - |   139M |   0 |1174 | 424 |1252 |9225 |211 |   0 |   0 | 3.946560e+04 |      --      |    Inf | unknown
 66.6s|     1 |     0 |322369 |     - |   139M |   0 |1174 | 424 |1256 |9229 |212 |   0 |   0 | 3.946560e+04 |      --      |    Inf | unknown
 66.6s|     1 |     0 |323037 |     - |   139M |   0 |1174 | 424 |1302 |9275 |213 |   0 |   0 | 3.967635e+04 |      --      |    Inf | unknown
 66.6s|     1 |     0 |323056 |     - |   139M |   0 |1174 | 424 |1307 |9280 |214 |   0 |   0 | 3.967678e+04 |      --      |    Inf | unknown
 66.7s|     1 |     0 |323304 |     - |   139M |   0 |1174 | 424 |1372 |9345 |215 |   0 |   0 | 3.968943e+04 |      --      |    Inf | unknown
 66.7s|     1 |     0 |323314 |     - |   139M |   0 |1174 | 424 |1218 |9352 |216 |   0 |   0 | 3.968950e+04 |      --      |    Inf | unknown
 66.7s|     1 |     0 |323497 |     - |   139M |   0 |1174 | 424 |1277 |9411 |217 |   0 |   0 | 3.972084e+04 |      --      |    Inf | unknown
 66.7s|     1 |     0 |323504 |     - |   139M |   0 |1174 | 424 |1281 |9415 |218 |   0 |   0 | 3.972084e+04 |      --      |    Inf | unknown
 66.7s|     1 |     0 |323905 |     - |   139M |   0 |1174 | 424 |1327 |9461 |219 |   0 |   0 | 3.977899e+04 |      --      |    Inf | unknown
 66.7s|     1 |     0 |323947 |     - |   139M |   0 |1174 | 424 |1348 |9482 |220 |   0 |   0 | 3.978141e+04 |      --      |    Inf | unknown
 66.8s|     1 |     0 |324403 |     - |   139M |   0 |1174 | 424 |1415 |9549 |221 |   0 |   0 | 3.979042e+04 |      --      |    Inf | unknown
 66.8s|     1 |     0 |324423 |     - |   139M |   0 |1174 | 424 |1261 |9555 |222 |   0 |   0 | 3.979050e+04 |      --      |    Inf | unknown
 time | node  | left  |LP iter|LP it/n|mem/heur|mdpt |vars |cons |rows |cuts |sepa|confs|strbr|  dualbound   | primalbound  |  gap   | compl. 
 66.8s|     1 |     0 |324660 |     - |   139M |   0 |1174 | 424 |1326 |9620 |223 |   0 |   0 | 3.980889e+04 |      --      |    Inf | unknown
 66.8s|     1 |     0 |324665 |     - |   139M |   0 |1174 | 424 |1328 |9622 |224 |   0 |   0 | 3.980896e+04 |      --      |    Inf | unknown
 66.8s|     1 |     0 |324981 |     - |   139M |   0 |1174 | 424 |1383 |9677 |225 |   0 |   0 | 3.984793e+04 |      --      |    Inf | unknown
 66.8s|     1 |     0 |325017 |     - |   139M |   0 |1174 | 424 |1392 |9686 |226 |   0 |   0 | 3.984888e+04 |      --      |    Inf | unknown
 66.9s|     1 |     0 |325541 |     - |   139M |   0 |1174 | 424 |1458 |9752 |227 |   0 |   0 | 3.986472e+04 |      --      |    Inf | unknown
 66.9s|     1 |     0 |325545 |     - |   139M |   0 |1174 | 424 |1272 |9755 |228 |   0 |   0 | 3.986473e+04 |      --      |    Inf | unknown
 66.9s|     1 |     0 |325671 |     - |   139M |   0 |1174 | 424 |1331 |9814 |229 |   0 |   0 | 3.987215e+04 |      --      |    Inf | unknown
 66.9s|     1 |     0 |325688 |     - |   139M |   0 |1174 | 424 |1334 |9817 |230 |   0 |   0 | 3.987220e+04 |      --      |    Inf | unknown
 67.0s|     1 |     0 |326054 |     - |   139M |   0 |1174 | 424 |1388 |9871 |231 |   0 |   0 | 3.990901e+04 |      --      |    Inf | unknown
 67.0s|     1 |     0 |326110 |     - |   139M |   0 |1174 | 424 |1399 |9882 |232 |   0 |   0 | 3.991077e+04 |      --      |    Inf | unknown
 67.0s|     1 |     0 |326613 |     - |   139M |   0 |1174 | 424 |1449 |9932 |233 |   0 |   0 | 3.992080e+04 |      --      |    Inf | unknown
 67.0s|     1 |     0 |326620 |     - |   139M |   0 |1174 | 424 |1243 |9935 |234 |   0 |   0 | 3.992085e+04 |      --      |    Inf | unknown
 67.0s|     1 |     0 |326753 |     - |   139M |   0 |1174 | 424 |1291 |9983 |235 |   0 |   0 | 3.993122e+04 |      --      |    Inf | unknown
 67.0s|     1 |     0 |326757 |     - |   139M |   0 |1174 | 424 |1294 |9986 |236 |   0 |   0 | 3.993122e+04 |      --      |    Inf | unknown
 67.1s|     1 |     0 |327035 |     - |   139M |   0 |1174 | 424 |1343 |  10k|237 |   0 |   0 | 3.999325e+04 |      --      |    Inf | unknown
 time | node  | left  |LP iter|LP it/n|mem/heur|mdpt |vars |cons |rows |cuts |sepa|confs|strbr|  dualbound   | primalbound  |  gap   | compl. 
 67.1s|     1 |     0 |327052 |     - |   139M |   0 |1174 | 424 |1350 |  10k|238 |   0 |   0 | 3.999330e+04 |      --      |    Inf | unknown
 67.1s|     1 |     0 |327196 |     - |   139M |   0 |1174 | 424 |1405 |  10k|239 |   0 |   0 | 4.000465e+04 |      --      |    Inf | unknown
 67.1s|     1 |     0 |327203 |     - |   139M |   0 |1174 | 424 |1187 |  10k|240 |   0 |   0 | 4.000465e+04 |      --      |    Inf | unknown
 67.1s|     1 |     0 |327357 |     - |   139M |   0 |1174 | 424 |1236 |  10k|241 |   0 |   0 | 4.004993e+04 |      --      |    Inf | unknown
 67.1s|     1 |     0 |327367 |     - |   139M |   0 |1174 | 424 |1241 |  10k|242 |   0 |   0 | 4.005031e+04 |      --      |    Inf | unknown
 67.2s|     1 |     0 |327595 |     - |   139M |   0 |1174 | 424 |1292 |  10k|243 |   0 |   0 | 4.009434e+04 |      --      |    Inf | unknown
 67.2s|     1 |     0 |327611 |     - |   139M |   0 |1174 | 424 |1298 |  10k|244 |   0 |   0 | 4.009476e+04 |      --      |    Inf | unknown
 67.2s|     1 |     0 |327788 |     - |   139M |   0 |1174 | 424 |1361 |  10k|245 |   0 |   0 | 4.010691e+04 |      --      |    Inf | unknown
 67.2s|     1 |     0 |327803 |     - |   139M |   0 |1174 | 424 |1180 |  10k|246 |   0 |   0 | 4.010696e+04 |      --      |    Inf | unknown
 67.2s|     1 |     0 |328167 |     - |   139M |   0 |1174 | 424 |1235 |  10k|247 |   0 |   0 | 4.012440e+04 |      --      |    Inf | unknown
 67.2s|     1 |     0 |328175 |     - |   139M |   0 |1174 | 424 |1236 |  10k|248 |   0 |   0 | 4.012441e+04 |      --      |    Inf | unknown
 67.3s|     1 |     0 |328511 |     - |   139M |   0 |1174 | 424 |1281 |  10k|249 |   0 |   0 | 4.019349e+04 |      --      |    Inf | unknown
 67.3s|     1 |     0 |328516 |     - |   139M |   0 |1174 | 424 |1287 |  10k|250 |   0 |   0 | 4.019350e+04 |      --      |    Inf | unknown
 67.3s|     1 |     0 |328746 |     - |   139M |   0 |1174 | 424 |1336 |  10k|251 |   0 |   0 | 4.020849e+04 |      --      |    Inf | unknown
 67.3s|     1 |     0 |328748 |     - |   139M |   0 |1174 | 424 |1177 |  10k|252 |   0 |   0 | 4.020849e+04 |      --      |    Inf | unknown
 time | node  | left  |LP iter|LP it/n|mem/heur|mdpt |vars |cons |rows |cuts |sepa|confs|strbr|  dualbound   | primalbound  |  gap   | compl. 
 67.3s|     1 |     0 |329071 |     - |   139M |   0 |1174 | 424 |1217 |  10k|253 |   0 |   0 | 4.029569e+04 |      --      |    Inf | unknown
 67.3s|     1 |     0 |329083 |     - |   139M |   0 |1174 | 424 |1223 |  10k|254 |   0 |   0 | 4.029610e+04 |      --      |    Inf | unknown
 67.4s|     1 |     0 |329457 |     - |   139M |   0 |1174 | 424 |1283 |  10k|255 |   0 |   0 | 4.031639e+04 |      --      |    Inf | unknown
 67.4s|     1 |     0 |329467 |     - |   139M |   0 |1174 | 424 |1286 |  10k|256 |   0 |   0 | 4.031639e+04 |      --      |    Inf | unknown
 67.4s|     1 |     0 |329671 |     - |   139M |   0 |1174 | 424 |1337 |  10k|257 |   0 |   0 | 4.034589e+04 |      --      |    Inf | unknown
 67.4s|     1 |     0 |329690 |     - |   139M |   0 |1174 | 424 |1173 |  10k|258 |   0 |   0 | 4.034599e+04 |      --      |    Inf | unknown
 67.5s|     1 |     0 |330099 |     - |   139M |   0 |1174 | 424 |1222 |  10k|259 |   0 |   0 | 4.038485e+04 |      --      |    Inf | unknown
 67.5s|     1 |     0 |330122 |     - |   139M |   0 |1174 | 424 |1228 |  10k|260 |   0 |   0 | 4.038504e+04 |      --      |    Inf | unknown
 67.5s|     1 |     0 |330530 |     - |   139M |   0 |1174 | 424 |1276 |  10k|261 |   0 |   0 | 4.045874e+04 |      --      |    Inf | unknown
 67.5s|     1 |     0 |330554 |     - |   139M |   0 |1174 | 424 |1282 |  10k|262 |   0 |   0 | 4.045887e+04 |      --      |    Inf | unknown
 67.5s|     1 |     0 |330808 |     - |   139M |   0 |1174 | 424 |1339 |  10k|263 |   0 |   0 | 4.046332e+04 |      --      |    Inf | unknown
 67.5s|     1 |     0 |330823 |     - |   139M |   0 |1174 | 424 |1194 |  10k|264 |   0 |   0 | 4.046337e+04 |      --      |    Inf | unknown
 67.6s|     1 |     0 |331051 |     - |   139M |   0 |1174 | 424 |1246 |  10k|265 |   0 |   0 | 4.048032e+04 |      --      |    Inf | unknown
 67.6s|     1 |     0 |331059 |     - |   139M |   0 |1174 | 424 |1250 |  10k|266 |   0 |   0 | 4.048032e+04 |      --      |    Inf | unknown
 67.6s|     1 |     0 |331330 |     - |   139M |   0 |1174 | 424 |1295 |  10k|267 |   0 |   0 | 4.055210e+04 |      --      |    Inf | unknown
 time | node  | left  |LP iter|LP it/n|mem/heur|mdpt |vars |cons |rows |cuts |sepa|confs|strbr|  dualbound   | primalbound  |  gap   | compl. 
 67.6s|     1 |     0 |331338 |     - |   139M |   0 |1174 | 424 |1298 |  10k|268 |   0 |   0 | 4.055213e+04 |      --      |    Inf | unknown
 67.6s|     1 |     0 |331534 |     - |   139M |   0 |1174 | 424 |1350 |  10k|269 |   0 |   0 | 4.055856e+04 |      --      |    Inf | unknown
 67.7s|     1 |     0 |331538 |     - |   139M |   0 |1174 | 424 |1181 |  10k|270 |   0 |   0 | 4.055856e+04 |      --      |    Inf | unknown
 67.7s|     1 |     0 |331793 |     - |   139M |   0 |1174 | 424 |1220 |  10k|271 |   0 |   0 | 4.057879e+04 |      --      |    Inf | unknown
 67.7s|     1 |     0 |331799 |     - |   139M |   0 |1174 | 424 |1225 |  10k|272 |   0 |   0 | 4.057881e+04 |      --      |    Inf | unknown
 67.7s|     1 |     0 |331976 |     - |   139M |   0 |1174 | 424 |1276 |  11k|273 |   0 |   0 | 4.058469e+04 |      --      |    Inf | unknown
 67.7s|     1 |     0 |331979 |     - |   139M |   0 |1174 | 424 |1279 |  11k|274 |   0 |   0 | 4.058469e+04 |      --      |    Inf | unknown
 67.8s|     1 |     0 |332283 |     - |   139M |   0 |1174 | 424 |1319 |  11k|275 |   0 |   0 | 4.062869e+04 |      --      |    Inf | unknown
 67.8s|     1 |     0 |332286 |     - |   139M |   0 |1174 | 424 |1142 |  11k|276 |   0 |   0 | 4.062869e+04 |      --      |    Inf | unknown
 67.8s|     1 |     0 |332404 |     - |   139M |   0 |1174 | 424 |1188 |  11k|277 |   0 |   0 | 4.063655e+04 |      --      |    Inf | unknown
 67.8s|     1 |     0 |332407 |     - |   139M |   0 |1174 | 424 |1191 |  11k|278 |   0 |   0 | 4.063655e+04 |      --      |    Inf | unknown
 67.8s|     1 |     0 |332672 |     - |   139M |   0 |1174 | 424 |1234 |  11k|279 |   0 |   0 | 4.066261e+04 |      --      |    Inf | unknown
 67.8s|     1 |     0 |332675 |     - |   139M |   0 |1174 | 424 |1237 |  11k|280 |   0 |   0 | 4.066261e+04 |      --      |    Inf | unknown
 67.8s|     1 |     0 |332849 |     - |   139M |   0 |1174 | 424 |1284 |  11k|281 |   0 |   0 | 4.066948e+04 |      --      |    Inf | unknown
 67.8s|     1 |     2 |332849 |     - |   139M |   0 |1174 | 424 |1284 |  11k|282 |   0 |   0 | 4.066948e+04 |      --      |    Inf | unknown

SCIP Status        : solving was interrupted [node limit reached]
Solving Time (sec) : 67.84
Solving Nodes      : 1
Primal Bound       : +1.00000000000000e+20 (0 solutions)
Dual Bound         : +4.06694775020746e+04
Gap                : infinite


SCIP Status        : solving was interrupted [node limit reached]
Total Time         :      67.84
  solving          :      67.84
  presolving       :       0.05 (included in solving)
  reading          :       0.00
  copying          :       0.00 (1 #copies) (minimal 0.00, maximal 0.00, average 0.00)
Original Problem   :
  Problem name     : powerflow0057r
  Variables        : 441 (0 binary, 0 integer, 441 continuous)
  Implied int vars : 0 (0 binary, 0 integer, 0 continuous)
  Constraints      : 726 initial, 726 maximal
  Objective        : minimize, 8 non-zeros (abs.min = 1, abs.max = 4000)
Presolved Problem  :
  Problem name     : t_powerflow0057r
  Variables        : 1174 (0 binary, 0 integer, 1174 continuous)
  Implied int vars : 0 (0 binary, 0 integer, 0 continuous)
  Constraints      : 424 initial, 424 maximal
  Objective        : minimize, 8 non-zeros (abs.min = 1, abs.max = 4000)
  Nonzeros         : 1864 constraint, 0 clique table
Presolvers         :   ExecTime  SetupTime  Calls  FixedVars   AggrVars   ChgTypes  ChgBounds   AddHoles    DelCons    AddCons   ChgSides   ChgCoefs
  boundshift       :       0.00       0.00      0          0          0          0          0          0          0          0          0          0
  convertinttobin  :       0.00       0.00      0          0          0          0          0          0          0          0          0          0
  domcol           :       0.00       0.00      1          0          0          0          0          0          0          0          0          0
  dualagg          :       0.00       0.00      0          0          0          0          0          0          0          0          0          0
  dualcomp         :       0.00       0.00      1          0          0          0          0          0          0          0          0          0
  dualinfer        :       0.00       0.00      0          0          0          0          0          0          0          0          0          0
  dualsparsify     :       0.00       0.00      1          0          0          0          0          0          0          0          0          0
  gateextraction   :       0.00       0.00      0          0          0          0          0          0          0          0          0          0
  implics          :       0.00       0.00      1          0          0          0          0          0          0          0          0          0
  implint          :       0.00       0.00      0          0          0          0          0          0          0          0          0          0
  inttobinary      :       0.00       0.00      0          0          0          0          0          0          0          0          0          0
  qpkktref         :       0.00       0.00      0          0          0          0          0          0          0          0          0          0
  redvub           :       0.00       0.00      0          0          0          0          0          0          0          0          0          0
  sparsify         :       0.00       0.00      1          0          0          0          0          0          0          0          0          0
  stuffing         :       0.00       0.00      0          0          0          0          0          0          0          0          0          0
  trivial          :       0.00       0.00      3          0          0          0          0          0          0          0          0          0
  tworowbnd        :       0.00       0.00      0          0          0          0          0          0          0          0          0          0
  dualfix          :       0.00       0.00      3          0          0          0          0          0          0          0          0          0
  genvbounds       :       0.00       0.00      0          0          0          0          0          0          0          0          0          0
  probing          :       0.00       0.00      0          0          0          0          0          0          0          0          0          0
  pseudoobj        :       0.00       0.00      0          0          0          0          0          0          0          0          0          0
  symmetry         :       0.00       0.00      1          0          0          0          0          0          0          0          0          0
  vbounds          :       0.00       0.00      0          0          0          0          0          0          0          0          0          0
  linear           :       0.01       0.00      4          3         69          0        119          0         93          0          0          0
  nonlinear        :       0.04       0.01      5          0          0          0       1249          0        152          0          0          0
  components       :       0.00       0.00      1          0          0          0          0          0          0          0          0          0
  root node        :          -          -      -          0          -          -        744          -          -          -          -          -
Constraints        :     Number  MaxNumber  #Separate #Propagate    #EnfoLP    #EnfoRelax  #EnfoPS    #Check   #ResProp    Cutoffs    DomReds       Cuts    Applied      Conss   Children
  integral         :          0          0          0          0          0          0          0          9          0          0          0          0          0          0          0
  linear           :         50         50        152         65          0          0          0          9          0          0          0          0          0          0          0
  nonlinear        :        374        374        152         65        131          0          0          1          0          6          0      11078       2361          0          2
  fixedvar         :          0          0          0          0          0          0          0          0          0          0          0          0          0          0          0
  countsols        :          0          0          0          0          0          0          0          0          0          0          0          0          0          0          0
  components       :          0          0          0          0          0          0          0          0          0          0          0          0          0          0          0
Constraint Timings :  TotalTime  SetupTime   Separate  Propagate     EnfoLP     EnfoPS     EnfoRelax   Check    ResProp    SB-Prop
  integral         :       0.00       0.00       0.00       0.00       0.00       0.00       0.00       0.00       0.00       0.00
  linear           :       0.00       0.00       0.00       0.00       0.00       0.00       0.00       0.00       0.00       0.00
  nonlinear        :      12.29       0.01      11.85       0.01       0.42       0.00       0.00       0.00       0.00       0.00
  fixedvar         :       0.00       0.00       0.00       0.00       0.00       0.00       0.00       0.00       0.00       0.00
  countsols        :       0.00       0.00       0.00       0.00       0.00       0.00       0.00       0.00       0.00       0.00
  components       :       0.00       0.00       0.00       0.00       0.00       0.00       0.00       0.00       0.00       0.00
Propagators        : #Propagate   #ResProp    Cutoffs    DomReds
  dualfix          :          2          0          0          0
  genvbounds       :        537          0          0          0
  nlobbt           :          0          0          0          0
  obbt             :        264          0          0          1
  probing          :          0          0          0          0
  pseudoobj        :          0          0          0          0
  redcost          :          0          0          0          0
  rootredcost      :          0          0          0          0
  symmetry         :          0          0          0          0
  vbounds          :          0          0          0          0
Propagator Timings :  TotalTime  SetupTime   Presolve  Propagate    ResProp    SB-Prop
  dualfix          :       0.00       0.00       0.00       0.00       0.00       0.00
  genvbounds       :       0.00       0.00       0.00       0.00       0.00       0.00
  nlobbt           :       0.00       0.00       0.00       0.00       0.00       0.00
  obbt             :      44.00       0.00       0.00      44.00       0.00       0.00
  probing          :       0.00       0.00       0.00       0.00       0.00       0.00
  pseudoobj        :       0.00       0.00       0.00       0.00       0.00       0.00
  redcost          :       0.00       0.00       0.00       0.00       0.00       0.00
  rootredcost      :       0.00       0.00       0.00       0.00       0.00       0.00
  symmetry         :       0.00       0.00       0.00       0.00       0.00       0.00
  vbounds          :       0.00       0.00       0.00       0.00       0.00       0.00
Conflict Analysis  :       Time      Calls    Success    DomReds  Conflicts   Literals    Reconvs ReconvLits   Dualrays   Nonzeros   LP Iters   (pool size: [--,--])
  propagation      :       0.00          0          0          -          0        0.0          0        0.0          -          -          -
  infeasible LP    :       0.00          0          0          -          0        0.0          0        0.0          0        0.0          0
  bound exceed. LP :       0.00          0          0          -          0        0.0          0        0.0          0        0.0          0
  strong branching :       0.00          0          0          -          0        0.0          0        0.0          -          -          0
  pseudo solution  :       0.00          0          0          -          0        0.0          0        0.0          -          -          -
  applied globally :       0.00          -          -          0          0        0.0          -          -          0          -          -
  applied locally  :          -          -          -          0          0        0.0          -          -          0          -          -
Gen. Resolution CA :       Time      Calls    Success  Conflicts  LargeCoef  LongConfs    Length
  propagation      :       0.00          0          0          0          0          0       0.0
Separators         :   ExecTime  SetupTime      Calls  RootCalls    Cutoffs    DomReds  FoundCuts ViaPoolAdd  DirectAdd    Applied ViaPoolApp  DirectApp      Conss
  cut pool         :       0.00          -          0          0          -          -          0          0          -          -          -          -          -    (maximal pool size:          0)
  aggregation      :       0.00       0.00          0          0          0          0          0          0          0          0          0          0          0
  > cmir           :          -          -          -          -          -          -          -          0          0          0          0          0          -
  > flowcover      :          -          -          -          -          -          -          -          0          0          0          0          0          -
  > knapsackcover  :          -          -          -          -          -          -          -          0          0          0          0          0          -
  cgmip            :       0.00       0.00          0          0          0          0          0          0          0          0          0          0          0
  clique           :       0.00       0.00          0          0          0          0          0          0          0          0          0          0          0
  closecuts        :       0.00       0.00          0          0          0          0          0          0          0          0          0          0          0
  convexproj       :       0.00       0.00          0          0          0          0          0          0          0          0          0          0          0
  disjunctive      :       0.00       0.00          0          0          0          0          0          0          0          0          0          0          0
  eccuts           :       0.00       0.00          0          0          0          0          0          0          0          0          0          0          0
  flower           :       0.00       0.00        152        152          0          0          0          0          0          0          0          0          0
  gauge            :       0.00       0.00          0          0          0          0          0          0          0          0          0          0          0
  gomory           :       0.00       0.00          0          0          0          0          0          0          0          0          0          0          0
  > gomorymi       :          -          -          -          -          -          -          -          0          0          0          0          0          -
  > strongcg       :          -          -          -          -          -          -          -          0          0          0          0          0          -
  impliedbounds    :       0.00       0.00          0          0          0          0          0          0          0          0          0          0          0
  interminor       :       0.00       0.00          0          0          0          0          0          0          0          0          0          0          0
...